Circuit: * Z:\home\dries\Projects\SignaalVerwerking\vcvs.asc


Date: Wed May 09 15:37:17 2018
Total elapsed time: 0.071 seconds.

tnom = 27
temp = 27
method = trap
totiter = 0
traniter = 0
tranpoints = 0
accept = 0
rejected = 0
matrix size = 24
fillins = 33
solver = Normal

