
**** 05/25/18 11:18:10 ****** PSpice Lite (October 2012) ****** ID# 10813 ****

 * Bode (LTSpice export)


 ****     CIRCUIT DESCRIPTION


******************************************************************************



.inc opampIdeaal.cir

**** INCLUDING opampIdeaal.cir ****
*
* ideal opamp model (pure VCVS)
*
* Adc   = 200000  (amplification at DC)
* Rin   = infinite MOhm  (imput impedance) 
* Rout  = 0 Ohm  (output impedance)

* CONNECTIONS:      NON-INVERTING INPUT
*                   | INVERTING INPUT
*                   | | OUTPUT
*                   | | |
.SUBCKT opampIdeal  1 2 3
E1    3  0    1 2   200000
.ENDS

**** RESUMING bode.cir ****

.model r res(r = 1 DEV 1%)
.model c cap(c = 1 DEV 1%)

R1 N001 vin r 6.1426K
V1 vin 0 AC 1
XU1 N001 0 N002 opampIdeal
C1 N002 N001 c 1e-8
R2 N002 N001 r 26.648K
R3 vout N001 r 8.6869K
XU2 N003 0 N004 opampIdeal
XU3 N005 0 vout opampIdeal
R4 N003 N002 r 8.6869K
R5 N005 N004 r 8.6869K
R6 vout N005 r 8.6869K
C2 N004 N003 c 1e-8

.ac dec 100 100 1MEG
.mc 10 AC V(R6) YMAX LIST OUTPUT ALL
.probe
.end

**** 05/25/18 11:18:10 ****** PSpice Lite (October 2012) ****** ID# 10813 ****

 * Bode (LTSpice export)


 ****     Resistor MODEL PARAMETERS


******************************************************************************




               r               
           R    1            


**** 05/25/18 11:18:10 ****** PSpice Lite (October 2012) ****** ID# 10813 ****

 * Bode (LTSpice export)


 ****     Capacitor MODEL PARAMETERS


******************************************************************************




               c               
           C    1            


**** 05/25/18 11:18:10 ****** PSpice Lite (October 2012) ****** ID# 10813 ****

 * Bode (LTSpice export)


 ****     SMALL SIGNAL BIAS SOLUTION       TEMPERATURE =   27.000 DEG C

                      MONTE CARLO NOMINAL

******************************************************************************



 NODE   VOLTAGE     NODE   VOLTAGE     NODE   VOLTAGE     NODE   VOLTAGE


(  vin)    0.0000  ( N001)    0.0000  ( N002)    0.0000  ( N003)    0.0000      

( N004)    0.0000  ( N005)    0.0000  ( vout)    0.0000  




    VOLTAGE SOURCE CURRENTS
    NAME         CURRENT

    V1           0.000E+00

    TOTAL POWER DISSIPATION   0.00E+00  WATTS


**** 05/25/18 11:18:10 ****** PSpice Lite (October 2012) ****** ID# 10813 ****

 * Bode (LTSpice export)


 ****     UPDATED MODEL PARAMETERS         TEMPERATURE =   27.000 DEG C

                      MONTE CARLO NOMINAL

******************************************************************************



     **** CURRENT MODEL PARAMETERS FOR DEVICES REFERENCING c
                                    C1           C2      
                  C             1.0000E+00   1.0000E+00  
                               
    
     **** CURRENT MODEL PARAMETERS FOR DEVICES REFERENCING r
                                    R1           R2      R3           
                  R             1.0000E+00   1.0000E+00   1.0000E+00  

    
                                    R4           R5      R6           
                  R             1.0000E+00   1.0000E+00   1.0000E+00  

    

**** 05/25/18 11:18:10 ****** PSpice Lite (October 2012) ****** ID# 10813 ****

 * Bode (LTSpice export)


 ****     SMALL SIGNAL BIAS SOLUTION       TEMPERATURE =   27.000 DEG C

                      MONTE CARLO PASS 2

******************************************************************************



 NODE   VOLTAGE     NODE   VOLTAGE     NODE   VOLTAGE     NODE   VOLTAGE


(  vin)    0.0000  ( N001)    0.0000  ( N002)    0.0000  ( N003)    0.0000      

( N004)    0.0000  ( N005)    0.0000  ( vout)    0.0000  




    VOLTAGE SOURCE CURRENTS
    NAME         CURRENT

    V1           0.000E+00

    TOTAL POWER DISSIPATION   0.00E+00  WATTS


**** 05/25/18 11:18:10 ****** PSpice Lite (October 2012) ****** ID# 10813 ****

 * Bode (LTSpice export)


 ****     UPDATED MODEL PARAMETERS         TEMPERATURE =   27.000 DEG C

                      MONTE CARLO PASS 2

******************************************************************************



     **** CURRENT MODEL PARAMETERS FOR DEVICES REFERENCING c
                                    C1           C2      
                  C             9.9885E-01   9.9952E-01  
                               
    
     **** CURRENT MODEL PARAMETERS FOR DEVICES REFERENCING r
                                    R1           R2      R3           
                  R             1.0027E+00   1.0077E+00   9.9493E-01  

    
                                    R4           R5      R6           
                  R             1.0028E+00   9.9494E-01   1.0028E+00  

    

**** 05/25/18 11:18:10 ****** PSpice Lite (October 2012) ****** ID# 10813 ****

 * Bode (LTSpice export)


 ****     SMALL SIGNAL BIAS SOLUTION       TEMPERATURE =   27.000 DEG C

                      MONTE CARLO PASS 3

******************************************************************************



 NODE   VOLTAGE     NODE   VOLTAGE     NODE   VOLTAGE     NODE   VOLTAGE


(  vin)    0.0000  ( N001)    0.0000  ( N002)    0.0000  ( N003)    0.0000      

( N004)    0.0000  ( N005)    0.0000  ( vout)    0.0000  




    VOLTAGE SOURCE CURRENTS
    NAME         CURRENT

    V1           0.000E+00

    TOTAL POWER DISSIPATION   0.00E+00  WATTS


**** 05/25/18 11:18:10 ****** PSpice Lite (October 2012) ****** ID# 10813 ****

 * Bode (LTSpice export)


 ****     UPDATED MODEL PARAMETERS         TEMPERATURE =   27.000 DEG C

                      MONTE CARLO PASS 3

******************************************************************************



     **** CURRENT MODEL PARAMETERS FOR DEVICES REFERENCING c
                                    C1           C2      
                  C             1.0029E+00   9.9256E-01  
                               
    
     **** CURRENT MODEL PARAMETERS FOR DEVICES REFERENCING r
                                    R1           R2      R3           
                  R             1.0080E+00   1.0034E+00   9.9662E-01  

    
                                    R4           R5      R6           
                  R             9.9677E-01   1.0057E+00   9.9340E-01  

    

**** 05/25/18 11:18:10 ****** PSpice Lite (October 2012) ****** ID# 10813 ****

 * Bode (LTSpice export)


 ****     SMALL SIGNAL BIAS SOLUTION       TEMPERATURE =   27.000 DEG C

                      MONTE CARLO PASS 4

******************************************************************************



 NODE   VOLTAGE     NODE   VOLTAGE     NODE   VOLTAGE     NODE   VOLTAGE


(  vin)    0.0000  ( N001)    0.0000  ( N002)    0.0000  ( N003)    0.0000      

( N004)    0.0000  ( N005)    0.0000  ( vout)    0.0000  




    VOLTAGE SOURCE CURRENTS
    NAME         CURRENT

    V1           0.000E+00

    TOTAL POWER DISSIPATION   0.00E+00  WATTS


**** 05/25/18 11:18:10 ****** PSpice Lite (October 2012) ****** ID# 10813 ****

 * Bode (LTSpice export)


 ****     UPDATED MODEL PARAMETERS         TEMPERATURE =   27.000 DEG C

                      MONTE CARLO PASS 4

******************************************************************************



     **** CURRENT MODEL PARAMETERS FOR DEVICES REFERENCING c
                                    C1           C2      
                  C             9.9422E-01   9.9149E-01  
                               
    
     **** CURRENT MODEL PARAMETERS FOR DEVICES REFERENCING r
                                    R1           R2      R3           
                  R             1.0048E+00   9.9894E-01   1.0045E+00  

    
                                    R4           R5      R6           
                  R             1.0024E+00   9.9975E-01   1.0047E+00  

    

**** 05/25/18 11:18:10 ****** PSpice Lite (October 2012) ****** ID# 10813 ****

 * Bode (LTSpice export)


 ****     SMALL SIGNAL BIAS SOLUTION       TEMPERATURE =   27.000 DEG C

                      MONTE CARLO PASS 5

******************************************************************************



 NODE   VOLTAGE     NODE   VOLTAGE     NODE   VOLTAGE     NODE   VOLTAGE


(  vin)    0.0000  ( N001)    0.0000  ( N002)    0.0000  ( N003)    0.0000      

( N004)    0.0000  ( N005)    0.0000  ( vout)    0.0000  




    VOLTAGE SOURCE CURRENTS
    NAME         CURRENT

    V1           0.000E+00

    TOTAL POWER DISSIPATION   0.00E+00  WATTS


**** 05/25/18 11:18:10 ****** PSpice Lite (October 2012) ****** ID# 10813 ****

 * Bode (LTSpice export)


 ****     UPDATED MODEL PARAMETERS         TEMPERATURE =   27.000 DEG C

                      MONTE CARLO PASS 5

******************************************************************************



     **** CURRENT MODEL PARAMETERS FOR DEVICES REFERENCING c
                                    C1           C2      
                  C             1.0034E+00   1.0068E+00  
                               
    
     **** CURRENT MODEL PARAMETERS FOR DEVICES REFERENCING r
                                    R1           R2      R3           
                  R             9.9178E-01   9.9871E-01   9.9866E-01  

    
                                    R4           R5      R6           
                  R             1.0064E+00   1.0005E+00   1.0046E+00  

    

**** 05/25/18 11:18:10 ****** PSpice Lite (October 2012) ****** ID# 10813 ****

 * Bode (LTSpice export)


 ****     SMALL SIGNAL BIAS SOLUTION       TEMPERATURE =   27.000 DEG C

                      MONTE CARLO PASS 6

******************************************************************************



 NODE   VOLTAGE     NODE   VOLTAGE     NODE   VOLTAGE     NODE   VOLTAGE


(  vin)    0.0000  ( N001)    0.0000  ( N002)    0.0000  ( N003)    0.0000      

( N004)    0.0000  ( N005)    0.0000  ( vout)    0.0000  




    VOLTAGE SOURCE CURRENTS
    NAME         CURRENT

    V1           0.000E+00

    TOTAL POWER DISSIPATION   0.00E+00  WATTS


**** 05/25/18 11:18:10 ****** PSpice Lite (October 2012) ****** ID# 10813 ****

 * Bode (LTSpice export)


 ****     UPDATED MODEL PARAMETERS         TEMPERATURE =   27.000 DEG C

                      MONTE CARLO PASS 6

******************************************************************************



     **** CURRENT MODEL PARAMETERS FOR DEVICES REFERENCING c
                                    C1           C2      
                  C             9.9843E-01   1.0099E+00  
                               
    
     **** CURRENT MODEL PARAMETERS FOR DEVICES REFERENCING r
                                    R1           R2      R3           
                  R             1.0037E+00   1.0002E+00   1.0095E+00  

    
                                    R4           R5      R6           
                  R             9.9134E-01   9.9266E-01   1.0057E+00  

    

**** 05/25/18 11:18:10 ****** PSpice Lite (October 2012) ****** ID# 10813 ****

 * Bode (LTSpice export)


 ****     SMALL SIGNAL BIAS SOLUTION       TEMPERATURE =   27.000 DEG C

                      MONTE CARLO PASS 7

******************************************************************************



 NODE   VOLTAGE     NODE   VOLTAGE     NODE   VOLTAGE     NODE   VOLTAGE


(  vin)    0.0000  ( N001)    0.0000  ( N002)    0.0000  ( N003)    0.0000      

( N004)    0.0000  ( N005)    0.0000  ( vout)    0.0000  




    VOLTAGE SOURCE CURRENTS
    NAME         CURRENT

    V1           0.000E+00

    TOTAL POWER DISSIPATION   0.00E+00  WATTS


**** 05/25/18 11:18:10 ****** PSpice Lite (October 2012) ****** ID# 10813 ****

 * Bode (LTSpice export)


 ****     UPDATED MODEL PARAMETERS         TEMPERATURE =   27.000 DEG C

                      MONTE CARLO PASS 7

******************************************************************************



     **** CURRENT MODEL PARAMETERS FOR DEVICES REFERENCING c
                                    C1           C2      
                  C             9.9833E-01   1.0005E+00  
                               
    
     **** CURRENT MODEL PARAMETERS FOR DEVICES REFERENCING r
                                    R1           R2      R3           
                  R             1.0037E+00   1.0046E+00   1.0016E+00  

    
                                    R4           R5      R6           
                  R             1.0048E+00   9.9065E-01   9.9344E-01  

    

**** 05/25/18 11:18:10 ****** PSpice Lite (October 2012) ****** ID# 10813 ****

 * Bode (LTSpice export)


 ****     SMALL SIGNAL BIAS SOLUTION       TEMPERATURE =   27.000 DEG C

                      MONTE CARLO PASS 8

******************************************************************************



 NODE   VOLTAGE     NODE   VOLTAGE     NODE   VOLTAGE     NODE   VOLTAGE


(  vin)    0.0000  ( N001)    0.0000  ( N002)    0.0000  ( N003)    0.0000      

( N004)    0.0000  ( N005)    0.0000  ( vout)    0.0000  




    VOLTAGE SOURCE CURRENTS
    NAME         CURRENT

    V1           0.000E+00

    TOTAL POWER DISSIPATION   0.00E+00  WATTS


**** 05/25/18 11:18:10 ****** PSpice Lite (October 2012) ****** ID# 10813 ****

 * Bode (LTSpice export)


 ****     UPDATED MODEL PARAMETERS         TEMPERATURE =   27.000 DEG C

                      MONTE CARLO PASS 8

******************************************************************************



     **** CURRENT MODEL PARAMETERS FOR DEVICES REFERENCING c
                                    C1           C2      
                  C             1.0025E+00   9.9580E-01  
                               
    
     **** CURRENT MODEL PARAMETERS FOR DEVICES REFERENCING r
                                    R1           R2      R3           
                  R             1.0069E+00   1.0030E+00   9.9674E-01  

    
                                    R4           R5      R6           
                  R             9.9334E-01   9.9658E-01   1.0076E+00  

    

**** 05/25/18 11:18:10 ****** PSpice Lite (October 2012) ****** ID# 10813 ****

 * Bode (LTSpice export)


 ****     SMALL SIGNAL BIAS SOLUTION       TEMPERATURE =   27.000 DEG C

                      MONTE CARLO PASS 9

******************************************************************************



 NODE   VOLTAGE     NODE   VOLTAGE     NODE   VOLTAGE     NODE   VOLTAGE


(  vin)    0.0000  ( N001)    0.0000  ( N002)    0.0000  ( N003)    0.0000      

( N004)    0.0000  ( N005)    0.0000  ( vout)    0.0000  




    VOLTAGE SOURCE CURRENTS
    NAME         CURRENT

    V1           0.000E+00

    TOTAL POWER DISSIPATION   0.00E+00  WATTS


**** 05/25/18 11:18:10 ****** PSpice Lite (October 2012) ****** ID# 10813 ****

 * Bode (LTSpice export)


 ****     UPDATED MODEL PARAMETERS         TEMPERATURE =   27.000 DEG C

                      MONTE CARLO PASS 9

******************************************************************************



     **** CURRENT MODEL PARAMETERS FOR DEVICES REFERENCING c
                                    C1           C2      
                  C             1.0023E+00   9.9690E-01  
                               
    
     **** CURRENT MODEL PARAMETERS FOR DEVICES REFERENCING r
                                    R1           R2      R3           
                  R             9.9840E-01   9.9722E-01   1.0059E+00  

    
                                    R4           R5      R6           
                  R             1.0029E+00   1.0075E+00   9.9646E-01  

    

**** 05/25/18 11:18:10 ****** PSpice Lite (October 2012) ****** ID# 10813 ****

 * Bode (LTSpice export)


 ****     SMALL SIGNAL BIAS SOLUTION       TEMPERATURE =   27.000 DEG C

                      MONTE CARLO PASS 10

******************************************************************************



 NODE   VOLTAGE     NODE   VOLTAGE     NODE   VOLTAGE     NODE   VOLTAGE


(  vin)    0.0000  ( N001)    0.0000  ( N002)    0.0000  ( N003)    0.0000      

( N004)    0.0000  ( N005)    0.0000  ( vout)    0.0000  




    VOLTAGE SOURCE CURRENTS
    NAME         CURRENT

    V1           0.000E+00

    TOTAL POWER DISSIPATION   0.00E+00  WATTS


**** 05/25/18 11:18:10 ****** PSpice Lite (October 2012) ****** ID# 10813 ****

 * Bode (LTSpice export)


 ****     UPDATED MODEL PARAMETERS         TEMPERATURE =   27.000 DEG C

                      MONTE CARLO PASS 10

******************************************************************************



     **** CURRENT MODEL PARAMETERS FOR DEVICES REFERENCING c
                                    C1           C2      
                  C             1.0011E+00   1.0048E+00  
                               
    
     **** CURRENT MODEL PARAMETERS FOR DEVICES REFERENCING r
                                    R1           R2      R3           
                  R             1.0030E+00   1.0062E+00   9.9636E-01  

    
                                    R4           R5      R6           
                  R             1.0086E+00   1.0074E+00   1.0044E+00  

    

**** 05/25/18 11:18:10 ****** PSpice Lite (October 2012) ****** ID# 10813 ****

 * Bode (LTSpice export)


 ****     SORTED DEVIATIONS OF V(R6)       TEMPERATURE =   27.000 DEG C

                      MONTE CARLO SUMMARY

******************************************************************************





Mean Deviation =     .0157
Sigma          =     .0861

 RUN                    MAX DEVIATION FROM NOMINAL

Pass    8                .1535  (1.78 sigma)  higher  at F =    1.9953E+03
                        ( 104.35% of Nominal)

Pass    9                .119   (1.38 sigma)  lower  at F =    1.9953E+03
                        (  96.627% of Nominal)

Pass   10                .1086  (1.26 sigma)  lower  at F =    1.9953E+03
                        (  96.922% of Nominal)

Pass    2                .0808  ( .94 sigma)  higher  at F =    1.9953E+03
                        ( 102.29% of Nominal)

Pass    4                .0747  ( .87 sigma)  higher  at F =    2.0417E+03
                        ( 102.31% of Nominal)

Pass    5                .0617  ( .72 sigma)  higher  at F =    1.5849E+03
                        ( 101.65% of Nominal)

Pass    6                .0474  ( .55 sigma)  higher  at F =    1.9498E+03
                        ( 101.25% of Nominal)

Pass    3                .0312  ( .36 sigma)  lower  at F =    1.9953E+03
                        (  99.117% of Nominal)

Pass    7                .0177  ( .21 sigma)  lower  at F =    2.0417E+03
                        (  99.453% of Nominal)



          JOB CONCLUDED

**** 05/25/18 11:18:10 ****** PSpice Lite (October 2012) ****** ID# 10813 ****

 * Bode (LTSpice export)


 ****     JOB STATISTICS SUMMARY


******************************************************************************



  Total job time (using Solver 1)   =         .67
