Circuit: * Bode (LTSpice export)

Error on line 8 : .model c cap(c = 1 dev 1%)
	* Unrecognized parameter "dev" -- ignored
Error on line 22 : .mc 10 ac v(r6) ymax list output all
	 Unknown control card
Ignoring empty pin current: Ix(u1:1)
Ignoring empty pin current: Ix(u1:2)
Ignoring empty pin current: Ix(u2:1)
Ignoring empty pin current: Ix(u2:2)
Ignoring empty pin current: Ix(u3:1)
Ignoring empty pin current: Ix(u3:2)

Date: Fri May 25 14:40:40 2018
Total elapsed time: 0.131 seconds.

tnom = 27
temp = 27
method = trap
totiter = 0
traniter = 0
tranpoints = 0
accept = 0
rejected = 0
matrix size = 11
fillins = 3
solver = Normal

