Circuit: * H VCVS


Date: Thu May 10 14:34:57 2018
Total elapsed time: 0.031 seconds.

tnom = 27
temp = 27
method = trap
totiter = 0
traniter = 0
tranpoints = 0
accept = 0
rejected = 0
matrix size = 24
fillins = 33
solver = Normal

