Circuit: * H ideaal

Error on line 27 : .mc 10 ac v(v1) ymax list output all
	 Unknown control card

Date: Thu May 10 14:34:09 2018
Total elapsed time: 0.036 seconds.

tnom = 27
temp = 27
method = trap
totiter = 0
traniter = 0
tranpoints = 0
accept = 0
rejected = 0
matrix size = 24
fillins = 33
solver = Normal

