Circuit: * Z:\home\dries\Projects\Signaalverwerking\netlists\stap_tl084.asc

Early termination of direct N-R iteration.
Direct Newton iteration failed to find .op point.  (Use ".option noopiter" to skip.)
Starting Gmin stepping
Gmin = 10
vernier = 0.5
vernier = 0.25
vernier = 0.125
Gmin = 5.5165
vernier = 0.0625
vernier = 0.03125
vernier = 0.015625
vernier = 0.0078125
Gmin = 5.48432
vernier = 0.00390625
vernier = 0.00195313
vernier = 0.000976563
vernier = 0.000488281
Gmin = 0
Gmin stepping failed

Starting source stepping with srcstepmethod=0
Source Step = 3.0303%
Source Step = 33.3333%
Source Step = 63.6364%
Source Step = 93.9394%
Source stepping succeeded in finding the operating point.


Date: Thu May 10 17:16:12 2018
Total elapsed time: 0.302 seconds.

tnom = 27
temp = 27
method = modified trap
totiter = 3814
traniter = 2162
tranpoints = 1082
accept = 1078
rejected = 4
matrix size = 76
fillins = 523
solver = Normal
Thread vector: 4.6/4.0[2] 2.2/2.0[1] 2.1/2.0[1] 0.8/1.6[1]  2592/500
Matrix Compiler1: 50.82 KB object code size  6.7/3.3/[1.9]
Matrix Compiler2: 15.74 KB object code size  2.9/2.2/[1.0]

