Circuit: *----------------------------


Date: Wed Apr 18 16:28:33 2018
Total elapsed time: 0.051 seconds.

tnom = 27
temp = 27
method = trap
totiter = 0
traniter = 0
tranpoints = 0
accept = 0
rejected = 0
matrix size = 12
fillins = 0
solver = Normal

